 8
 Molecule
 Cd                 0.00000000    0.00000000    0.00000000
 Cd                 2.91650000    2.91650000    0.00000000
 Cd                 2.91650000    0.00000000    2.91650000
 Cd                 0.00000000    2.91650000    2.91650000
 Se                 1.45825000    1.45825000    1.45825000
 Se                 1.45825000    4.37475000    4.37475000
 Se                 4.37475000    1.45825000    4.37475000
 Se                 4.37475000    4.37475000    1.45825000   
