  579
 Molecule 
Se     51.038750     51.038750     53.955250 
Se     51.038750     51.038750     59.788250 
Se     51.038750     51.038750     65.621250 
Se     51.038750     53.955250     51.038750 
Cd     49.580500     55.413500     52.497000 
Cd     49.580500     52.497000     55.413500 
Se     48.122250     56.871750     56.871750 
Se     51.038750     53.955250     56.871750 
Se     51.038750     56.871750     53.955250 
Cd     49.580500     55.413500     58.330000 
Cd     49.580500     52.497000     61.246500 
Cd     46.664000     55.413500     61.246500 
Se     48.122250     53.955250     59.788250 
Se     48.122250     56.871750     62.704750 
Se     51.038750     53.955250     62.704750 
Se     51.038750     56.871750     59.788250 
Cd     49.580500     55.413500     64.163000 
Se     48.122250     53.955250     65.621250 
Se     51.038750     53.955250     68.537750 
Se     51.038750     56.871750     65.621250 
Se     51.038750     56.871750     71.454250 
Se     51.038750     59.788250     51.038750 
Cd     49.580500     61.246500     52.497000 
Cd     49.580500     58.330000     55.413500 
Cd     46.664000     61.246500     55.413500 
Se     48.122250     59.788250     53.955250 
Se     48.122250     62.704750     56.871750 
Se     51.038750     59.788250     56.871750 
Se     51.038750     62.704750     53.955250 
Cd     46.664000     58.330000     58.330000 
Cd     49.580500     61.246500     58.330000 
Cd     49.580500     58.330000     61.246500 
Cd     46.664000     61.246500     61.246500 
Se     48.122250     59.788250     59.788250 
Se     48.122250     62.704750     62.704750 
Se     51.038750     59.788250     62.704750 
Se     51.038750     62.704750     59.788250 
Cd     46.664000     58.330000     64.163000 
Cd     49.580500     61.246500     64.163000 
Cd     49.580500     58.330000     67.079500 
Se     48.122250     59.788250     65.621250 
Se     48.122250     62.704750     68.537750 
Se     51.038750     59.788250     68.537750 
Se     51.038750     62.704750     65.621250 
Cd     49.580500     61.246500     69.996000 
Se     51.038750     62.704750     71.454250 
Se     51.038750     65.621250     51.038750 
Cd     49.580500     64.163000     55.413500 
Se     48.122250     65.621250     53.955250 
Se     51.038750     65.621250     56.871750 
Se     51.038750     68.537750     53.955250 
Cd     46.664000     64.163000     58.330000 
Cd     49.580500     67.079500     58.330000 
Cd     49.580500     64.163000     61.246500 
Se     48.122250     65.621250     59.788250 
Se     48.122250     68.537750     62.704750 
Se     51.038750     65.621250     62.704750 
Se     51.038750     68.537750     59.788250 
Cd     46.664000     64.163000     64.163000 
Cd     49.580500     67.079500     64.163000 
Cd     49.580500     64.163000     67.079500 
Se     48.122250     65.621250     65.621250 
Se     51.038750     65.621250     68.537750 
Se     51.038750     68.537750     65.621250 
Se     51.038750     71.454250     56.871750 
Cd     49.580500     69.996000     61.246500 
Se     51.038750     71.454250     62.704750 
Se     53.955250     51.038750     51.038750 
Cd     55.413500     49.580500     52.497000 
Cd     52.497000     49.580500     55.413500 
Se     53.955250     51.038750     56.871750 
Se     56.871750     48.122250     56.871750 
Se     56.871750     51.038750     53.955250 
Cd     55.413500     49.580500     58.330000 
Cd     55.413500     46.664000     61.246500 
Cd     52.497000     49.580500     61.246500 
Se     53.955250     48.122250     59.788250 
Se     53.955250     51.038750     62.704750 
Se     56.871750     48.122250     62.704750 
Se     56.871750     51.038750     59.788250 
Cd     55.413500     49.580500     64.163000 
Se     53.955250     48.122250     65.621250 
Se     53.955250     51.038750     68.537750 
Se     56.871750     51.038750     65.621250 
Se     56.871750     51.038750     71.454250 
Cd     55.413500     52.497000     49.580500 
Cd     52.497000     55.413500     49.580500 
Se     53.955250     56.871750     51.038750 
Se     56.871750     53.955250     51.038750 
Se     56.871750     56.871750     48.122250 
Cd     52.497000     52.497000     52.497000 
Cd     55.413500     55.413500     52.497000 
Cd     55.413500     52.497000     55.413500 
Cd     52.497000     55.413500     55.413500 
Se     53.955250     53.955250     53.955250 
Se     53.955250     56.871750     56.871750 
Se     56.871750     53.955250     56.871750 
Se     56.871750     56.871750     53.955250 
Cd     52.497000     52.497000     58.330000 
Cd     55.413500     55.413500     58.330000 
Cd     55.413500     52.497000     61.246500 
Cd     52.497000     55.413500     61.246500 
Se     53.955250     53.955250     59.788250 
Se     53.955250     56.871750     62.704750 
Se     56.871750     53.955250     62.704750 
Se     56.871750     56.871750     59.788250 
Cd     52.497000     52.497000     64.163000 
Cd     55.413500     55.413500     64.163000 
Cd     55.413500     52.497000     67.079500 
Cd     52.497000     55.413500     67.079500 
Se     53.955250     53.955250     65.621250 
Se     53.955250     56.871750     68.537750 
Se     56.871750     53.955250     68.537750 
Se     56.871750     56.871750     65.621250 
Cd     52.497000     52.497000     69.996000 
Cd     55.413500     55.413500     69.996000 
Se     53.955250     53.955250     71.454250 
Se     56.871750     56.871750     71.454250 
Cd     55.413500     61.246500     46.664000 
Cd     55.413500     58.330000     49.580500 
Cd     52.497000     61.246500     49.580500 
Se     53.955250     59.788250     48.122250 
Se     53.955250     62.704750     51.038750 
Se     56.871750     59.788250     51.038750 
Se     56.871750     62.704750     48.122250 
Cd     52.497000     58.330000     52.497000 
Cd     55.413500     61.246500     52.497000 
Cd     55.413500     58.330000     55.413500 
Cd     52.497000     61.246500     55.413500 
Se     53.955250     59.788250     53.955250 
Se     53.955250     62.704750     56.871750 
Se     56.871750     59.788250     56.871750 
Se     56.871750     62.704750     53.955250 
Cd     52.497000     58.330000     58.330000 
Cd     55.413500     61.246500     58.330000 
Cd     55.413500     58.330000     61.246500 
Cd     52.497000     61.246500     61.246500 
Se     53.955250     59.788250     59.788250 
Se     53.955250     62.704750     62.704750 
Se     56.871750     59.788250     62.704750 
Se     56.871750     62.704750     59.788250 
Cd     52.497000     58.330000     64.163000 
Cd     55.413500     61.246500     64.163000 
Cd     55.413500     58.330000     67.079500 
Cd     52.497000     61.246500     67.079500 
Se     53.955250     59.788250     65.621250 
Se     53.955250     62.704750     68.537750 
Se     56.871750     59.788250     68.537750 
Se     56.871750     62.704750     65.621250 
Cd     52.497000     58.330000     69.996000 
Cd     55.413500     61.246500     69.996000 
Cd     55.413500     58.330000     72.912500 
Cd     52.497000     61.246500     72.912500 
Se     53.955250     59.788250     71.454250 
Se     56.871750     59.788250     74.370750 
Se     56.871750     62.704750     71.454250 
Cd     55.413500     64.163000     49.580500 
Se     53.955250     65.621250     48.122250 
Se     53.955250     68.537750     51.038750 
Se     56.871750     65.621250     51.038750 
Cd     52.497000     64.163000     52.497000 
Cd     55.413500     67.079500     52.497000 
Cd     55.413500     64.163000     55.413500 
Cd     52.497000     67.079500     55.413500 
Se     53.955250     65.621250     53.955250 
Se     53.955250     68.537750     56.871750 
Se     56.871750     65.621250     56.871750 
Se     56.871750     68.537750     53.955250 
Cd     52.497000     64.163000     58.330000 
Cd     55.413500     67.079500     58.330000 
Cd     55.413500     64.163000     61.246500 
Cd     52.497000     67.079500     61.246500 
Se     53.955250     65.621250     59.788250 
Se     53.955250     68.537750     62.704750 
Se     56.871750     65.621250     62.704750 
Se     56.871750     68.537750     59.788250 
Cd     52.497000     64.163000     64.163000 
Cd     55.413500     67.079500     64.163000 
Cd     55.413500     64.163000     67.079500 
Cd     52.497000     67.079500     67.079500 
Se     53.955250     65.621250     65.621250 
Se     53.955250     68.537750     68.537750 
Se     56.871750     65.621250     68.537750 
Se     56.871750     68.537750     65.621250 
Cd     52.497000     64.163000     69.996000 
Cd     55.413500     67.079500     69.996000 
Cd     55.413500     64.163000     72.912500 
Se     53.955250     65.621250     71.454250 
Se     56.871750     68.537750     71.454250 
Se     56.871750     71.454250     51.038750 
Cd     52.497000     69.996000     52.497000 
Cd     55.413500     69.996000     55.413500 
Se     53.955250     71.454250     53.955250 
Se     56.871750     71.454250     56.871750 
Cd     52.497000     69.996000     58.330000 
Cd     55.413500     72.912500     58.330000 
Cd     55.413500     69.996000     61.246500 
Cd     52.497000     72.912500     61.246500 
Se     53.955250     71.454250     59.788250 
Se     56.871750     71.454250     62.704750 
Se     56.871750     74.370750     59.788250 
Cd     52.497000     69.996000     64.163000 
Cd     55.413500     72.912500     64.163000 
Cd     55.413500     69.996000     67.079500 
Se     53.955250     71.454250     65.621250 
Se     56.871750     71.454250     68.537750 
Se     59.788250     51.038750     51.038750 
Cd     61.246500     49.580500     52.497000 
Cd     61.246500     46.664000     55.413500 
Cd     58.330000     49.580500     55.413500 
Se     59.788250     48.122250     53.955250 
Se     59.788250     51.038750     56.871750 
Se     62.704750     48.122250     56.871750 
Se     62.704750     51.038750     53.955250 
Cd     58.330000     46.664000     58.330000 
Cd     61.246500     49.580500     58.330000 
Cd     61.246500     46.664000     61.246500 
Cd     58.330000     49.580500     61.246500 
Se     59.788250     48.122250     59.788250 
Se     59.788250     51.038750     62.704750 
Se     62.704750     48.122250     62.704750 
Se     62.704750     51.038750     59.788250 
Cd     58.330000     46.664000     64.163000 
Cd     61.246500     49.580500     64.163000 
Cd     58.330000     49.580500     67.079500 
Se     59.788250     48.122250     65.621250 
Se     59.788250     51.038750     68.537750 
Se     62.704750     48.122250     68.537750 
Se     62.704750     51.038750     65.621250 
Cd     61.246500     49.580500     69.996000 
Se     62.704750     51.038750     71.454250 
Cd     61.246500     55.413500     46.664000 
Cd     61.246500     52.497000     49.580500 
Cd     58.330000     55.413500     49.580500 
Se     59.788250     53.955250     48.122250 
Se     59.788250     56.871750     51.038750 
Se     62.704750     53.955250     51.038750 
Se     62.704750     56.871750     48.122250 
Cd     58.330000     52.497000     52.497000 
Cd     61.246500     55.413500     52.497000 
Cd     61.246500     52.497000     55.413500 
Cd     58.330000     55.413500     55.413500 
Se     59.788250     53.955250     53.955250 
Se     59.788250     56.871750     56.871750 
Se     62.704750     53.955250     56.871750 
Se     62.704750     56.871750     53.955250 
Cd     58.330000     52.497000     58.330000 
Cd     61.246500     55.413500     58.330000 
Cd     61.246500     52.497000     61.246500 
Cd     58.330000     55.413500     61.246500 
Se     59.788250     53.955250     59.788250 
Se     59.788250     56.871750     62.704750 
Se     62.704750     53.955250     62.704750 
Se     62.704750     56.871750     59.788250 
Cd     58.330000     52.497000     64.163000 
Cd     61.246500     55.413500     64.163000 
Cd     61.246500     52.497000     67.079500 
Cd     58.330000     55.413500     67.079500 
Se     59.788250     53.955250     65.621250 
Se     59.788250     56.871750     68.537750 
Se     62.704750     53.955250     68.537750 
Se     62.704750     56.871750     65.621250 
Cd     58.330000     52.497000     69.996000 
Cd     61.246500     55.413500     69.996000 
Cd     61.246500     52.497000     72.912500 
Cd     58.330000     55.413500     72.912500 
Se     59.788250     53.955250     71.454250 
Se     59.788250     56.871750     74.370750 
Se     62.704750     56.871750     71.454250 
Cd     58.330000     58.330000     46.664000 
Cd     61.246500     61.246500     46.664000 
Cd     61.246500     58.330000     49.580500 
Cd     58.330000     61.246500     49.580500 
Se     59.788250     59.788250     48.122250 
Se     59.788250     62.704750     51.038750 
Se     62.704750     59.788250     51.038750 
Se     62.704750     62.704750     48.122250 
Cd     58.330000     58.330000     52.497000 
Cd     61.246500     61.246500     52.497000 
Cd     61.246500     58.330000     55.413500 
Cd     58.330000     61.246500     55.413500 
Se     59.788250     59.788250     53.955250 
Se     59.788250     62.704750     56.871750 
Se     62.704750     59.788250     56.871750 
Se     62.704750     62.704750     53.955250 
Cd     58.330000     58.330000     58.330000 
Cd     61.246500     61.246500     58.330000 
Cd     61.246500     58.330000     61.246500 
Cd     58.330000     61.246500     61.246500 
Se     59.788250     59.788250     59.788250 
Se     59.788250     62.704750     62.704750 
Se     62.704750     59.788250     62.704750 
Se     62.704750     62.704750     59.788250 
Cd     58.330000     58.330000     64.163000 
Cd     61.246500     61.246500     64.163000 
Cd     61.246500     58.330000     67.079500 
Cd     58.330000     61.246500     67.079500 
Se     59.788250     59.788250     65.621250 
Se     59.788250     62.704750     68.537750 
Se     62.704750     59.788250     68.537750 
Se     62.704750     62.704750     65.621250 
Cd     58.330000     58.330000     69.996000 
Cd     61.246500     61.246500     69.996000 
Cd     61.246500     58.330000     72.912500 
Cd     58.330000     61.246500     72.912500 
Se     59.788250     59.788250     71.454250 
Se     59.788250     62.704750     74.370750 
Se     62.704750     59.788250     74.370750 
Se     62.704750     62.704750     71.454250 
Cd     58.330000     64.163000     46.664000 
Cd     61.246500     64.163000     49.580500 
Cd     58.330000     67.079500     49.580500 
Se     59.788250     65.621250     48.122250 
Se     59.788250     68.537750     51.038750 
Se     62.704750     65.621250     51.038750 
Se     62.704750     68.537750     48.122250 
Cd     58.330000     64.163000     52.497000 
Cd     61.246500     67.079500     52.497000 
Cd     61.246500     64.163000     55.413500 
Cd     58.330000     67.079500     55.413500 
Se     59.788250     65.621250     53.955250 
Se     59.788250     68.537750     56.871750 
Se     62.704750     65.621250     56.871750 
Se     62.704750     68.537750     53.955250 
Cd     58.330000     64.163000     58.330000 
Cd     61.246500     67.079500     58.330000 
Cd     61.246500     64.163000     61.246500 
Cd     58.330000     67.079500     61.246500 
Se     59.788250     65.621250     59.788250 
Se     59.788250     68.537750     62.704750 
Se     62.704750     65.621250     62.704750 
Se     62.704750     68.537750     59.788250 
Cd     58.330000     64.163000     64.163000 
Cd     61.246500     67.079500     64.163000 
Cd     61.246500     64.163000     67.079500 
Cd     58.330000     67.079500     67.079500 
Se     59.788250     65.621250     65.621250 
Se     59.788250     68.537750     68.537750 
Se     62.704750     65.621250     68.537750 
Se     62.704750     68.537750     65.621250 
Cd     58.330000     64.163000     69.996000 
Cd     61.246500     67.079500     69.996000 
Cd     61.246500     64.163000     72.912500 
Cd     58.330000     67.079500     72.912500 
Se     59.788250     65.621250     71.454250 
Se     62.704750     65.621250     74.370750 
Se     62.704750     68.537750     71.454250 
Cd     61.246500     69.996000     49.580500 
Se     62.704750     71.454250     51.038750 
Cd     58.330000     69.996000     52.497000 
Cd     61.246500     72.912500     52.497000 
Cd     61.246500     69.996000     55.413500 
Cd     58.330000     72.912500     55.413500 
Se     59.788250     71.454250     53.955250 
Se     59.788250     74.370750     56.871750 
Se     62.704750     71.454250     56.871750 
Cd     58.330000     69.996000     58.330000 
Cd     61.246500     72.912500     58.330000 
Cd     61.246500     69.996000     61.246500 
Cd     58.330000     72.912500     61.246500 
Se     59.788250     71.454250     59.788250 
Se     59.788250     74.370750     62.704750 
Se     62.704750     71.454250     62.704750 
Se     62.704750     74.370750     59.788250 
Cd     58.330000     69.996000     64.163000 
Cd     61.246500     72.912500     64.163000 
Cd     61.246500     69.996000     67.079500 
Cd     58.330000     72.912500     67.079500 
Se     59.788250     71.454250     65.621250 
Se     62.704750     71.454250     68.537750 
Se     62.704750     74.370750     65.621250 
Cd     58.330000     69.996000     69.996000 
Se     65.621250     51.038750     51.038750 
Cd     64.163000     49.580500     55.413500 
Se     65.621250     48.122250     53.955250 
Se     65.621250     51.038750     56.871750 
Se     68.537750     51.038750     53.955250 
Cd     64.163000     46.664000     58.330000 
Cd     67.079500     49.580500     58.330000 
Cd     64.163000     49.580500     61.246500 
Se     65.621250     48.122250     59.788250 
Se     65.621250     51.038750     62.704750 
Se     68.537750     48.122250     62.704750 
Se     68.537750     51.038750     59.788250 
Cd     64.163000     46.664000     64.163000 
Cd     67.079500     49.580500     64.163000 
Cd     64.163000     49.580500     67.079500 
Se     65.621250     48.122250     65.621250 
Se     65.621250     51.038750     68.537750 
Se     68.537750     51.038750     65.621250 
Cd     64.163000     55.413500     49.580500 
Se     65.621250     53.955250     48.122250 
Se     65.621250     56.871750     51.038750 
Se     68.537750     53.955250     51.038750 
Cd     64.163000     52.497000     52.497000 
Cd     67.079500     55.413500     52.497000 
Cd     67.079500     52.497000     55.413500 
Cd     64.163000     55.413500     55.413500 
Se     65.621250     53.955250     53.955250 
Se     65.621250     56.871750     56.871750 
Se     68.537750     53.955250     56.871750 
Se     68.537750     56.871750     53.955250 
Cd     64.163000     52.497000     58.330000 
Cd     67.079500     55.413500     58.330000 
Cd     67.079500     52.497000     61.246500 
Cd     64.163000     55.413500     61.246500 
Se     65.621250     53.955250     59.788250 
Se     65.621250     56.871750     62.704750 
Se     68.537750     53.955250     62.704750 
Se     68.537750     56.871750     59.788250 
Cd     64.163000     52.497000     64.163000 
Cd     67.079500     55.413500     64.163000 
Cd     67.079500     52.497000     67.079500 
Cd     64.163000     55.413500     67.079500 
Se     65.621250     53.955250     65.621250 
Se     65.621250     56.871750     68.537750 
Se     68.537750     53.955250     68.537750 
Se     68.537750     56.871750     65.621250 
Cd     64.163000     52.497000     69.996000 
Cd     67.079500     55.413500     69.996000 
Cd     64.163000     55.413500     72.912500 
Se     65.621250     53.955250     71.454250 
Se     68.537750     56.871750     71.454250 
Cd     64.163000     58.330000     46.664000 
Cd     67.079500     58.330000     49.580500 
Cd     64.163000     61.246500     49.580500 
Se     65.621250     59.788250     48.122250 
Se     65.621250     62.704750     51.038750 
Se     68.537750     59.788250     51.038750 
Se     68.537750     62.704750     48.122250 
Cd     64.163000     58.330000     52.497000 
Cd     67.079500     61.246500     52.497000 
Cd     67.079500     58.330000     55.413500 
Cd     64.163000     61.246500     55.413500 
Se     65.621250     59.788250     53.955250 
Se     65.621250     62.704750     56.871750 
Se     68.537750     59.788250     56.871750 
Se     68.537750     62.704750     53.955250 
Cd     64.163000     58.330000     58.330000 
Cd     67.079500     61.246500     58.330000 
Cd     67.079500     58.330000     61.246500 
Cd     64.163000     61.246500     61.246500 
Se     65.621250     59.788250     59.788250 
Se     65.621250     62.704750     62.704750 
Se     68.537750     59.788250     62.704750 
Se     68.537750     62.704750     59.788250 
Cd     64.163000     58.330000     64.163000 
Cd     67.079500     61.246500     64.163000 
Cd     67.079500     58.330000     67.079500 
Cd     64.163000     61.246500     67.079500 
Se     65.621250     59.788250     65.621250 
Se     65.621250     62.704750     68.537750 
Se     68.537750     59.788250     68.537750 
Se     68.537750     62.704750     65.621250 
Cd     64.163000     58.330000     69.996000 
Cd     67.079500     61.246500     69.996000 
Cd     67.079500     58.330000     72.912500 
Cd     64.163000     61.246500     72.912500 
Se     65.621250     59.788250     71.454250 
Se     65.621250     62.704750     74.370750 
Se     68.537750     62.704750     71.454250 
Cd     64.163000     64.163000     46.664000 
Cd     67.079500     64.163000     49.580500 
Cd     64.163000     67.079500     49.580500 
Se     65.621250     65.621250     48.122250 
Se     65.621250     68.537750     51.038750 
Se     68.537750     65.621250     51.038750 
Cd     64.163000     64.163000     52.497000 
Cd     67.079500     67.079500     52.497000 
Cd     67.079500     64.163000     55.413500 
Cd     64.163000     67.079500     55.413500 
Se     65.621250     65.621250     53.955250 
Se     65.621250     68.537750     56.871750 
Se     68.537750     65.621250     56.871750 
Se     68.537750     68.537750     53.955250 
Cd     64.163000     64.163000     58.330000 
Cd     67.079500     67.079500     58.330000 
Cd     67.079500     64.163000     61.246500 
Cd     64.163000     67.079500     61.246500 
Se     65.621250     65.621250     59.788250 
Se     65.621250     68.537750     62.704750 
Se     68.537750     65.621250     62.704750 
Se     68.537750     68.537750     59.788250 
Cd     64.163000     64.163000     64.163000 
Cd     67.079500     67.079500     64.163000 
Cd     67.079500     64.163000     67.079500 
Cd     64.163000     67.079500     67.079500 
Se     65.621250     65.621250     65.621250 
Se     65.621250     68.537750     68.537750 
Se     68.537750     65.621250     68.537750 
Se     68.537750     68.537750     65.621250 
Cd     64.163000     64.163000     69.996000 
Cd     67.079500     67.079500     69.996000 
Cd     67.079500     64.163000     72.912500 
Cd     64.163000     67.079500     72.912500 
Se     65.621250     65.621250     71.454250 
Cd     64.163000     69.996000     52.497000 
Cd     67.079500     69.996000     55.413500 
Cd     64.163000     72.912500     55.413500 
Se     65.621250     71.454250     53.955250 
Se     68.537750     71.454250     56.871750 
Cd     64.163000     69.996000     58.330000 
Cd     67.079500     72.912500     58.330000 
Cd     67.079500     69.996000     61.246500 
Cd     64.163000     72.912500     61.246500 
Se     65.621250     71.454250     59.788250 
Se     65.621250     74.370750     62.704750 
Se     68.537750     71.454250     62.704750 
Cd     64.163000     69.996000     64.163000 
Cd     67.079500     72.912500     64.163000 
Cd     67.079500     69.996000     67.079500 
Cd     64.163000     72.912500     67.079500 
Se     65.621250     71.454250     65.621250 
Cd     64.163000     69.996000     69.996000 
Se     71.454250     51.038750     56.871750 
Cd     69.996000     49.580500     61.246500 
Se     71.454250     51.038750     62.704750 
Se     71.454250     56.871750     51.038750 
Cd     69.996000     52.497000     52.497000 
Cd     69.996000     55.413500     55.413500 
Se     71.454250     53.955250     53.955250 
Se     71.454250     56.871750     56.871750 
Cd     69.996000     52.497000     58.330000 
Cd     72.912500     55.413500     58.330000 
Cd     72.912500     52.497000     61.246500 
Cd     69.996000     55.413500     61.246500 
Se     71.454250     53.955250     59.788250 
Se     71.454250     56.871750     62.704750 
Se     74.370750     56.871750     59.788250 
Cd     69.996000     52.497000     64.163000 
Cd     72.912500     55.413500     64.163000 
Cd     69.996000     55.413500     67.079500 
Se     71.454250     53.955250     65.621250 
Se     71.454250     56.871750     68.537750 
Cd     69.996000     61.246500     49.580500 
Se     71.454250     62.704750     51.038750 
Cd     69.996000     58.330000     52.497000 
Cd     72.912500     61.246500     52.497000 
Cd     72.912500     58.330000     55.413500 
Cd     69.996000     61.246500     55.413500 
Se     71.454250     59.788250     53.955250 
Se     71.454250     62.704750     56.871750 
Se     74.370750     59.788250     56.871750 
Cd     69.996000     58.330000     58.330000 
Cd     72.912500     61.246500     58.330000 
Cd     72.912500     58.330000     61.246500 
Cd     69.996000     61.246500     61.246500 
Se     71.454250     59.788250     59.788250 
Se     71.454250     62.704750     62.704750 
Se     74.370750     59.788250     62.704750 
Se     74.370750     62.704750     59.788250 
Cd     69.996000     58.330000     64.163000 
Cd     72.912500     61.246500     64.163000 
Cd     72.912500     58.330000     67.079500 
Cd     69.996000     61.246500     67.079500 
Se     71.454250     59.788250     65.621250 
Se     71.454250     62.704750     68.537750 
Se     74.370750     62.704750     65.621250 
Cd     69.996000     58.330000     69.996000 
Cd     69.996000     64.163000     52.497000 
Cd     72.912500     64.163000     55.413500 
Cd     69.996000     67.079500     55.413500 
Se     71.454250     65.621250     53.955250 
Se     71.454250     68.537750     56.871750 
Cd     69.996000     64.163000     58.330000 
Cd     72.912500     67.079500     58.330000 
Cd     72.912500     64.163000     61.246500 
Cd     69.996000     67.079500     61.246500 
Se     71.454250     65.621250     59.788250 
Se     71.454250     68.537750     62.704750 
Se     74.370750     65.621250     62.704750 
Cd     69.996000     64.163000     64.163000 
Cd     72.912500     67.079500     64.163000 
Cd     72.912500     64.163000     67.079500 
Cd     69.996000     67.079500     67.079500 
Se     71.454250     65.621250     65.621250 
Cd     69.996000     64.163000     69.996000 
Cd     69.996000     69.996000     58.330000 
Cd     69.996000     69.996000     64.163000 
