96
Perovskite by Madjet (cubic)
C      0.2021417   0.2475094   0.2319645 
C      0.2132514   0.2474803   0.7386232
C      0.2022643   0.7427370   0.2319645
C      0.2133740   0.7427080   0.7386232
C      0.7021417   0.2475094   0.2319645
C      0.7132514   0.2474803   0.7386232
C      0.7022643   0.7427370   0.2319645
C      0.7133740   0.7427080   0.7386232
N      0.3106839   0.2476009   0.2775324
N      0.3217936   0.2475718   0.7841911
N      0.3108065   0.7428285   0.2775324
N      0.3219162   0.7427994   0.7841911
N      0.8106839   0.2476009   0.2775324
N      0.8217936   0.2475718   0.7841911
N      0.8108065   0.7428285   0.2775324
N      0.8219162   0.7427994   0.7841911
H      0.2083112   0.2474282   0.1447919
H      0.2194209   0.2473992   0.6514516
H      0.2084338   0.7426549   0.1447919
H      0.2195436   0.7426258   0.6514516
H      0.7083112   0.2474282   0.1447919
H      0.7194209   0.2473992   0.6514516
H      0.7084338   0.7426549   0.1447919
H      0.7195436   0.7426258   0.6514516
H      0.1600945   0.3192601   0.2589188
H      0.1712042   0.3192310   0.7655774
H      0.1602171   0.8144877   0.2589188
H      0.1713268   0.8144587   0.7655774
H      0.6600945   0.3192601   0.2589188
H      0.6712042   0.3192310   0.7655774
H      0.6602171   0.8144877   0.2589188
H      0.6713268   0.8144587   0.7655774
H      0.1601669   0.1757675   0.2590556
H      0.1712767   0.1757384   0.7657153
H      0.1602896   0.6709941   0.2590556
H      0.1713993   0.6709650   0.7657153
H      0.6601669   0.1757675   0.2590556
H      0.6712767   0.1757384   0.7657153
H      0.6602896   0.6709941   0.2590556
H      0.6713993   0.6709650   0.7657153
H      0.3537836   0.3148251   0.2540964
H      0.3648934   0.3147961   0.7607561
H      0.3539063   0.8100528   0.2540964
H      0.3650160   0.8100237   0.7607561
H      0.8537836   0.3148251   0.2540964
H      0.8648934   0.3147961   0.7607561
H      0.8539063   0.8100528   0.2540964
H      0.8650160   0.8100237   0.7607561
H      0.3538243   0.1803516   0.2542322
H      0.3649341   0.1803225   0.7608919
H      0.3539470   0.6755792   0.2542322
H      0.3650567   0.6755501   0.7608919
H      0.8538243   0.1803516   0.2542322
H      0.8649341   0.1803225   0.7608919
H      0.8539470   0.6755792   0.2542322
H      0.8650567   0.6755501   0.7608919
H      0.3111328   0.2476853   0.3603458
H      0.3222425   0.2476562   0.8670054
H      0.3112554   0.7429129   0.3603458
H      0.3223652   0.7428838   0.8670054
H      0.8111328   0.2476853   0.3603458
H      0.8222425   0.2476562   0.8670054
H      0.8112554   0.7429129   0.3603458
H      0.8223652   0.7428838   0.8670054
Pb     0.4834258   0.4951883   0.4953217
Pb     0.4945355   0.4951593   1.0019813
Pb     0.4835484   0.9904159   0.4953217
Pb     0.4946581   0.9903869   1.0019813
Pb     0.9834258   0.4951883   0.4953217
Pb     0.9945355   0.4951593   1.0019813
Pb     0.9835484   0.9904159   0.4953217
Pb     0.9946581   0.9903869   1.0019813
I      0.4601454   0.4952049   0.2407368
I      0.4712551   0.4951759   0.7473965
I      0.4602680   0.9904315   0.2407368
I      0.4713777   0.9904025   0.7473965
I      0.9601444   0.4952049   0.2407368
I      0.9712541   0.4951759   0.7473965
I      0.9602670   0.9904315   0.2407368
I      0.9713767   0.9904025   0.7473965
I      0.4499592   0.2475923   0.0119896
I      0.4610689   0.2475633   0.5186492
I      0.4500819   0.7428190   0.0119896
I      0.4611916   0.7427899   0.5186492
I      0.9499592   0.2475923   0.0119896
I      0.9610689   0.2475633   0.5186492
I      0.9500819   0.7428190   0.0119896
I      0.9611916   0.7427899   0.5186492
I      0.2265421   0.4951979   0.4673825
I      0.2376519   0.4951688   0.9740422
I      0.2266648   0.9904245   0.4673825
I      0.2377745   0.9903954   0.9740422
I      0.7265421   0.4951979   0.4673825
I      0.7376519   0.4951688   0.9740422
I      0.7266648   0.9904245   0.4673825
I      0.7377745   0.9903954   0.9740422
